<?xml version="1.0" encoding="UTF-8"?>

<!-- generated on 2026-05-29T09:22:46.596752+08:00 by Eclipse SUMO netconvert 1.26.0
<netconvertConfiguration xmlns:xsi="http://www.w3.org/2001/XMLSchema-instance" xsi:noNamespaceSchemaLocation="http://sumo.dlr.de/xsd/netconvertConfiguration.xsd">

    <input>
        <sumo-net-file value="sumo\intersection_1\inter.net.xml"/>
    </input>

    <output>
        <output-file value="sumo\intersection_1\inter_ped.net.xml"/>
    </output>

    <processing>
        <geometry.min-radius.fix.railways value="false"/>
        <geometry.avoid-overlap value="false"/>
        <geometry.max-grade.fix value="false"/>
        <offset.disable-normalization value="true"/>
        <lefthand value="0"/>
    </processing>

    <junctions>
        <no-turnarounds value="true"/>
        <junctions.corner-detail value="5"/>
        <junctions.limit-turn-speed value="5.50"/>
        <rectangular-lane-cut value="0"/>
    </junctions>

    <pedestrian>
        <sidewalks.guess value="true"/>
        <crossings.guess value="true"/>
        <walkingareas value="true"/>
    </pedestrian>

</netconvertConfiguration>
-->

<net version="1.20" junctionCornerDetail="5" walkingareas="true" limitTurnSpeed="5.50" avoidOverlap="0" xmlns:xsi="http://www.w3.org/2001/XMLSchema-instance" xsi:noNamespaceSchemaLocation="http://sumo.dlr.de/xsd/net_file.xsd">

    <location netOffset="-810008.55,-823025.46" convBoundary="0.00,0.00,1550.70,1136.26" origBoundary="125.808390,7.436760,125.822386,7.447073" projParameter="+proj=utm +zone=51 +ellps=WGS84 +datum=WGS84 +units=m +no_defs"/>

    <type id="highway.tertiary" priority="10" numLanes="1" speed="22.22" disallow="tram rail_urban rail rail_electric rail_fast ship container cable_car subway aircraft wheelchair scooter drone" oneway="0"/>
    <type id="highway.trunk" priority="13" numLanes="2" speed="27.78" disallow="pedestrian bicycle tram rail_urban rail rail_electric rail_fast ship container cable_car subway aircraft wheelchair scooter drone" oneway="0"/>

    <edge id=":1217579782_0" function="internal">
        <lane id=":1217579782_0_0" index="0" disallow="pedestrian tram rail_urban rail rail_electric rail_fast ship container cable_car subway aircraft wheelchair scooter drone" speed="3.65" length="4.67" shape="742.28,1135.26 742.40,1136.70 742.03,1137.51 741.15,1137.70 739.78,1137.26"/>
    </edge>
    <edge id=":1217579782_w0" function="walkingarea">
        <lane id=":1217579782_w0_0" index="0" allow="pedestrian" speed="2.78" length="8.40" width="2.00" shape="738.53,1138.26 736.97,1139.51 745.09,1133.01 743.53,1134.26"/>
    </edge>
    <edge id=":1217580006_0" function="internal">
        <lane id=":1217580006_0_0" index="0" disallow="pedestrian bicycle tram rail_urban rail rail_electric rail_fast ship container cable_car subway aircraft wheelchair scooter drone" speed="3.65" length="4.67" shape="366.69,973.10 365.25,973.05 364.49,972.58 364.41,971.69 365.01,970.38"/>
    </edge>
    <edge id=":1217580006_w0" function="walkingarea">
        <lane id=":1217580006_w0_0" index="0" allow="pedestrian" speed="2.78" length="14.80" width="2.00" shape="362.50,966.29 361.46,964.58 370.24,978.90 369.20,977.19"/>
    </edge>
    <edge id=":1402896709_0" function="internal">
        <lane id=":1402896709_0_0" index="0" disallow="pedestrian bicycle tram rail_urban rail rail_electric rail_fast ship container cable_car subway aircraft wheelchair scooter drone" speed="3.65" length="4.67" shape="1549.65,-1.21 1551.08,-1.39 1551.91,-1.05 1552.13,-0.18 1551.75,1.21"/>
    </edge>
    <edge id=":1402896709_w0" function="walkingarea">
        <lane id=":1402896709_w0_0" index="0" allow="pedestrian" speed="2.78" length="14.80" width="2.00" shape="1554.89,4.84 1556.20,6.35 1545.20,-6.35 1546.51,-4.84"/>
    </edge>
    <edge id=":352681772_0" function="internal">
        <lane id=":352681772_0_0" index="0" disallow="pedestrian bicycle tram rail_urban rail rail_electric rail_fast ship container cable_car subway aircraft wheelchair scooter drone" speed="6.23" length="7.61" shape="531.81,877.34 530.50,876.21 528.92,875.82 527.07,876.17 524.96,877.25"/>
    </edge>
    <edge id=":352681772_1" function="internal">
        <lane id=":352681772_1_0" index="0" disallow="pedestrian tram rail_urban rail rail_electric rail_fast ship container cable_car subway aircraft wheelchair scooter drone" speed="11.11" length="16.80" shape="531.81,877.34 521.23,864.28"/>
    </edge>
    <edge id=":352681772_2" function="internal">
        <lane id=":352681772_2_0" index="0" disallow="pedestrian bicycle tram rail_urban rail rail_electric rail_fast ship container cable_car subway aircraft wheelchair scooter drone" speed="7.78" length="14.35" shape="531.81,877.34 529.45,873.55 528.73,870.23 529.63,867.37 532.17,864.98"/>
    </edge>
    <edge id=":352681772_3" function="internal">
        <lane id=":352681772_3_0" index="0" disallow="pedestrian tram rail_urban rail rail_electric rail_fast ship container cable_car subway aircraft wheelchair scooter drone" speed="3.65" length="4.67" shape="531.81,877.34 531.69,875.90 532.07,875.09 532.95,874.91 534.32,875.36"/>
    </edge>
    <edge id=":352681772_4" function="internal">
        <lane id=":352681772_4_0" index="0" disallow="pedestrian bicycle tram rail_urban rail rail_electric rail_fast ship container cable_car subway aircraft wheelchair scooter drone" speed="5.29" length="6.01" shape="535.64,870.36 534.25,871.51 533.56,872.73 533.59,874.01 534.32,875.36"/>
    </edge>
    <edge id=":352681772_5" function="internal">
        <lane id=":352681772_5_0" index="0" disallow="pedestrian bicycle tram rail_urban rail rail_electric rail_fast ship container cable_car subway aircraft wheelchair scooter drone" speed="11.11" length="12.71" shape="535.64,870.36 524.96,877.25"/>
        <lane id=":352681772_5_1" index="1" disallow="pedestrian bicycle tram rail_urban rail rail_electric rail_fast ship container cable_car subway aircraft wheelchair scooter drone" speed="11.11" length="12.71" shape="533.91,867.67 523.22,874.56"/>
    </edge>
    <edge id=":352681772_7" function="internal">
        <lane id=":352681772_7_0" index="0" disallow="pedestrian bicycle tram rail_urban rail rail_electric rail_fast ship container cable_car subway aircraft wheelchair scooter drone" speed="8.47" length="3.47" shape="533.91,867.67 530.71,869.01"/>
    </edge>
    <edge id=":352681772_8" function="internal">
        <lane id=":352681772_8_0" index="0" disallow="pedestrian bicycle tram rail_urban rail rail_electric rail_fast ship container cable_car subway aircraft wheelchair scooter drone" speed="3.65" length="1.44" shape="533.91,867.67 532.46,867.65"/>
    </edge>
    <edge id=":352681772_18" function="internal">
        <lane id=":352681772_18_0" index="0" disallow="pedestrian bicycle tram rail_urban rail rail_electric rail_fast ship container cable_car subway aircraft wheelchair scooter drone" speed="8.47" length="11.07" shape="530.71,869.01 527.53,868.89 524.37,867.31 521.23,864.28"/>
    </edge>
    <edge id=":352681772_19" function="internal">
        <lane id=":352681772_19_0" index="0" disallow="pedestrian bicycle tram rail_urban rail rail_electric rail_fast ship container cable_car subway aircraft wheelchair scooter drone" speed="3.65" length="3.23" shape="532.46,867.65 531.69,867.19 531.60,866.30 532.17,864.98"/>
    </edge>
    <edge id=":352681772_9" function="internal">
        <lane id=":352681772_9_0" index="0" disallow="pedestrian bicycle tram rail_urban rail rail_electric rail_fast ship container cable_car subway aircraft wheelchair scooter drone" speed="6.24" length="7.46" shape="523.70,862.24 525.01,863.31 526.57,863.68 528.38,863.34 530.44,862.29"/>
    </edge>
    <edge id=":352681772_10" function="internal">
        <lane id=":352681772_10_0" index="0" disallow="pedestrian tram rail_urban rail rail_electric rail_fast ship container cable_car subway aircraft wheelchair scooter drone" speed="11.11" length="16.88" shape="523.70,862.24 534.32,875.36"/>
    </edge>
    <edge id=":352681772_11" function="internal">
        <lane id=":352681772_11_0" index="0" disallow="pedestrian bicycle tram rail_urban rail rail_electric rail_fast ship container cable_car subway aircraft wheelchair scooter drone" speed="7.74" length="14.43" shape="523.70,862.24 526.10,865.94 526.83,869.23 525.87,872.10 523.22,874.56"/>
    </edge>
    <edge id=":352681772_12" function="internal">
        <lane id=":352681772_12_0" index="0" disallow="pedestrian tram rail_urban rail rail_electric rail_fast ship container cable_car subway aircraft wheelchair scooter drone" speed="3.65" length="4.67" shape="523.70,862.24 523.85,863.67 523.49,864.49 522.62,864.70 521.23,864.28"/>
    </edge>
    <edge id=":352681772_13" function="internal">
        <lane id=":352681772_13_0" index="0" disallow="pedestrian bicycle tram rail_urban rail rail_electric rail_fast ship container cable_car subway aircraft wheelchair scooter drone" speed="5.24" length="5.98" shape="519.75,869.19 521.20,868.00 521.93,866.79 521.94,865.55 521.23,864.28"/>
    </edge>
    <edge id=":352681772_14" function="internal">
        <lane id=":352681772_14_0" index="0" disallow="pedestrian bicycle tram rail_urban rail rail_electric rail_fast ship container cable_car subway aircraft wheelchair scooter drone" speed="11.11" length="12.73" shape="519.75,869.19 530.44,862.29"/>
        <lane id=":352681772_14_1" index="1" disallow="pedestrian bicycle tram rail_urban rail rail_electric rail_fast ship container cable_car subway aircraft wheelchair scooter drone" speed="11.11" length="12.73" shape="521.48,871.88 532.17,864.98"/>
    </edge>
    <edge id=":352681772_16" function="internal">
        <lane id=":352681772_16_0" index="0" disallow="pedestrian bicycle tram rail_urban rail rail_electric rail_fast ship container cable_car subway aircraft wheelchair scooter drone" speed="8.46" length="3.59" shape="521.48,871.88 524.79,870.47"/>
    </edge>
    <edge id=":352681772_17" function="internal">
        <lane id=":352681772_17_0" index="0" disallow="pedestrian bicycle tram rail_urban rail rail_electric rail_fast ship container cable_car subway aircraft wheelchair scooter drone" speed="3.65" length="1.44" shape="521.48,871.88 522.93,871.90"/>
    </edge>
    <edge id=":352681772_20" function="internal">
        <lane id=":352681772_20_0" index="0" disallow="pedestrian bicycle tram rail_urban rail rail_electric rail_fast ship container cable_car subway aircraft wheelchair scooter drone" speed="8.46" length="11.24" shape="524.79,870.47 528.03,870.59 531.21,872.21 534.32,875.36"/>
    </edge>
    <edge id=":352681772_21" function="internal">
        <lane id=":352681772_21_0" index="0" disallow="pedestrian bicycle tram rail_urban rail rail_electric rail_fast ship container cable_car subway aircraft wheelchair scooter drone" speed="3.65" length="3.23" shape="522.93,871.90 523.70,872.35 523.79,873.24 523.22,874.56"/>
    </edge>
    <edge id=":352681772_c0" function="crossing" crossingEdges="-180969633#1 180969633#1">
        <lane id=":352681772_c0_0" index="0" allow="pedestrian" speed="2.78" length="6.40" width="4.00" shape="534.34,872.80 529.31,876.76" outlineShape="535.66,874.30 530.48,878.39 530.02,877.82 529.38,877.54 528.64,877.47 527.80,877.63 527.10,877.91 528.08,875.19 533.10,871.23 536.14,871.97 535.92,872.14 535.51,872.58 535.27,873.02 535.20,873.46 535.30,873.91"/>
    </edge>
    <edge id=":352681772_c1" function="crossing" crossingEdges="1337657045#2 -1337657045#2">
        <lane id=":352681772_c1_0" index="0" allow="pedestrian" speed="2.78" length="12.80" width="4.00" shape="527.89,862.03 534.82,872.79" outlineShape="529.58,860.94 536.50,871.71 535.58,874.36 537.15,873.13 537.59,873.39 536.56,871.79 533.14,873.87 526.21,863.11 525.14,861.41 525.46,861.70 526.10,861.97 526.82,862.03 527.65,861.88 528.56,861.52"/>
    </edge>
    <edge id=":352681772_c2" function="crossing" crossingEdges="180970197#0 -180970197#0">
        <lane id=":352681772_c2_0" index="0" allow="pedestrian" speed="2.78" length="6.40" width="4.00" shape="521.28,866.84 526.20,862.75" outlineShape="520.00,865.31 524.93,861.22 525.46,861.70 526.10,861.97 526.82,862.03 527.65,861.88 528.45,861.56 527.48,864.29 522.56,868.38 519.42,867.45 519.94,866.96 520.21,866.53 520.31,866.11 520.24,865.70"/>
    </edge>
    <edge id=":352681772_c3" function="crossing" crossingEdges="-1337657045#1 1337657045#1">
        <lane id=":352681772_c3_0" index="0" allow="pedestrian" speed="2.78" length="12.80" width="4.00" shape="527.51,877.51 520.56,866.76" outlineShape="525.88,878.68 518.82,867.76 520.00,865.31 518.47,866.59 517.79,866.17 518.88,867.85 522.24,865.67 529.19,876.42 530.22,878.01 530.02,877.82 529.38,877.54 528.64,877.47 527.80,877.63 526.87,878.00"/>
    </edge>
    <edge id=":352681772_w0" function="walkingarea">
        <lane id=":352681772_w0_0" index="0" allow="pedestrian" speed="2.78" length="2.75" width="4.00" shape="525.83,878.59 526.91,880.27 528.98,879.57 530.55,878.33 530.02,877.82 529.38,877.54 528.64,877.47 527.80,877.63 526.87,878.00"/>
    </edge>
    <edge id=":352681772_w1" function="walkingarea">
        <lane id=":352681772_w1_0" index="0" allow="pedestrian" speed="2.78" length="1.81" width="4.00" shape="535.58,874.36 537.15,873.13 537.59,873.39 536.50,871.71 535.92,872.14 535.51,872.58 535.27,873.02 535.20,873.46 535.30,873.91"/>
    </edge>
    <edge id=":352681772_w2" function="walkingarea">
        <lane id=":352681772_w2_0" index="0" allow="pedestrian" speed="2.78" length="2.70" width="4.00" shape="529.58,860.94 528.49,859.26 526.46,859.94 524.93,861.22 525.46,861.70 526.10,861.97 526.82,862.03 527.65,861.88 528.56,861.52"/>
    </edge>
    <edge id=":352681772_w3" function="walkingarea">
        <lane id=":352681772_w3_0" index="0" allow="pedestrian" speed="2.78" length="1.85" width="4.00" shape="520.00,865.31 518.47,866.59 517.79,866.17 518.88,867.85 519.49,867.40 519.94,866.96 520.21,866.53 520.31,866.11 520.24,865.70"/>
    </edge>
    <edge id=":376306056_0" function="internal">
        <lane id=":376306056_0_0" index="0" disallow="pedestrian tram rail_urban rail rail_electric rail_fast ship container cable_car subway aircraft wheelchair scooter drone" speed="3.65" length="4.67" shape="-1.20,682.90 -1.39,681.47 -1.06,680.64 -0.20,680.41 1.20,680.78"/>
    </edge>
    <edge id=":376306056_w0" function="walkingarea">
        <lane id=":376306056_w0_0" index="0" allow="pedestrian" speed="2.78" length="8.40" width="2.00" shape="2.40,679.72 3.90,678.40 -3.90,685.28 -2.40,683.96"/>
    </edge>
    <edge id=":7900968103_0" function="internal">
        <lane id=":7900968103_0_0" index="0" disallow="pedestrian bicycle tram rail_urban rail rail_electric rail_fast ship container cable_car subway aircraft wheelchair scooter drone" speed="11.11" length="2.26" shape="524.79,877.36 522.90,878.58"/>
        <lane id=":7900968103_0_1" index="1" disallow="pedestrian bicycle tram rail_urban rail rail_electric rail_fast ship container cable_car subway aircraft wheelchair scooter drone" speed="11.11" length="2.26" shape="523.05,874.67 521.16,875.90"/>
    </edge>
    <edge id=":7900968103_2" function="internal">
        <lane id=":7900968103_2_0" index="0" disallow="pedestrian bicycle tram rail_urban rail rail_electric rail_fast ship container cable_car subway aircraft wheelchair scooter drone" speed="11.11" length="2.25" shape="517.69,870.52 519.58,869.30"/>
        <lane id=":7900968103_2_1" index="1" disallow="pedestrian bicycle tram rail_urban rail rail_electric rail_fast ship container cable_car subway aircraft wheelchair scooter drone" speed="11.11" length="2.25" shape="519.42,873.21 521.32,871.99"/>
    </edge>
    <edge id=":7900968103_c0" function="crossing" crossingEdges="1337657045#1 -1337657045#1">
        <lane id=":7900968103_c0_0" index="0" allow="pedestrian" speed="2.78" length="12.80" width="4.00" shape="517.03,869.04 523.98,879.79" outlineShape="518.71,867.96 525.66,878.70 525.71,878.79 525.66,878.70 522.30,880.88 515.35,870.13 518.71,867.96 518.65,867.87"/>
    </edge>
    <edge id=":7900968103_w0" function="walkingarea">
        <lane id=":7900968103_w0_0" index="0" allow="pedestrian" speed="2.78" length="1.84" width="4.00" shape="523.76,879.93 524.85,881.61 526.75,880.38 525.66,878.70 522.30,880.88"/>
    </edge>
    <edge id=":7900968103_w1" function="walkingarea">
        <lane id=":7900968103_w1_0" index="0" allow="pedestrian" speed="2.78" length="1.84" width="4.00" shape="515.35,870.13 518.71,867.96 517.62,866.28 515.73,867.50 516.82,869.18"/>
    </edge>
    <edge id=":7900968104_0" function="internal">
        <lane id=":7900968104_0_0" index="0" disallow="pedestrian bicycle tram rail_urban rail rail_electric rail_fast ship container cable_car subway aircraft wheelchair scooter drone" speed="11.11" length="2.19" shape="537.65,869.06 535.81,870.25"/>
        <lane id=":7900968104_0_1" index="1" disallow="pedestrian bicycle tram rail_urban rail rail_electric rail_fast ship container cable_car subway aircraft wheelchair scooter drone" speed="11.11" length="2.19" shape="535.91,866.37 534.07,867.56"/>
    </edge>
    <edge id=":7900968104_2" function="internal">
        <lane id=":7900968104_2_0" index="0" disallow="pedestrian bicycle tram rail_urban rail rail_electric rail_fast ship container cable_car subway aircraft wheelchair scooter drone" speed="11.11" length="2.18" shape="530.61,862.18 532.43,861.00"/>
        <lane id=":7900968104_2_1" index="1" disallow="pedestrian bicycle tram rail_urban rail rail_electric rail_fast ship container cable_car subway aircraft wheelchair scooter drone" speed="11.11" length="2.18" shape="532.34,864.87 534.17,863.69"/>
    </edge>
    <edge id=":7900968104_c0" function="crossing" crossingEdges="1337657045#3 -1337657045#3">
        <lane id=":7900968104_c0_0" index="0" allow="pedestrian" speed="2.78" length="12.80" width="4.00" shape="529.88,860.74 536.83,871.49" outlineShape="531.56,859.66 538.51,870.41 538.57,870.49 538.51,870.41 535.16,872.58 528.21,861.83"/>
    </edge>
    <edge id=":7900968104_w0" function="walkingarea">
        <lane id=":7900968104_w0_0" index="0" allow="pedestrian" speed="2.78" length="1.82" width="4.00" shape="536.67,871.60 537.75,873.28 539.60,872.08 538.51,870.41 535.16,872.58"/>
    </edge>
    <edge id=":7900968104_w1" function="walkingarea">
        <lane id=":7900968104_w1_0" index="0" allow="pedestrian" speed="2.78" length="1.81" width="4.00" shape="528.21,861.83 531.56,859.66 530.48,857.98 528.66,859.15 529.74,860.83"/>
    </edge>
    <edge id=":7900968105_0" function="internal">
        <lane id=":7900968105_0_0" index="0" disallow="pedestrian tram rail_urban rail rail_electric rail_fast ship container cable_car subway aircraft wheelchair scooter drone" speed="11.11" length="1.55" shape="532.90,878.70 531.93,877.50"/>
    </edge>
    <edge id=":7900968105_1" function="internal">
        <lane id=":7900968105_1_0" index="0" disallow="pedestrian tram rail_urban rail rail_electric rail_fast ship container cable_car subway aircraft wheelchair scooter drone" speed="11.11" length="1.53" shape="534.45,875.51 535.40,876.71"/>
    </edge>
    <edge id=":7900968105_c0" function="crossing" crossingEdges="-180969633#0 180969633#0">
        <lane id=":7900968105_c0_0" index="0" allow="pedestrian" speed="2.78" length="6.40" width="4.00" shape="535.41,874.15 530.40,878.13" outlineShape="536.66,875.71 531.65,879.70 531.57,879.76 531.65,879.70 529.16,876.57 534.17,872.58"/>
    </edge>
    <edge id=":7900968105_w0" function="walkingarea">
        <lane id=":7900968105_w0_0" index="0" allow="pedestrian" speed="2.78" length="1.63" width="4.00" shape="530.68,878.49 529.11,879.73 530.08,880.94 531.65,879.70 529.16,876.57"/>
    </edge>
    <edge id=":7900968105_w1" function="walkingarea">
        <lane id=":7900968105_w1_0" index="0" allow="pedestrian" speed="2.78" length="1.62" width="4.00" shape="534.17,872.58 536.66,875.71 538.22,874.47 537.27,873.28 535.70,874.52"/>
    </edge>
    <edge id=":7900968106_0" function="internal">
        <lane id=":7900968106_0_0" index="0" disallow="pedestrian tram rail_urban rail rail_electric rail_fast ship container cable_car subway aircraft wheelchair scooter drone" speed="11.11" length="1.29" shape="521.11,864.13 520.32,863.11"/>
    </edge>
    <edge id=":7900968106_1" function="internal">
        <lane id=":7900968106_1_0" index="0" disallow="pedestrian tram rail_urban rail rail_electric rail_fast ship container cable_car subway aircraft wheelchair scooter drone" speed="11.11" length="1.24" shape="522.81,861.10 523.57,862.08"/>
    </edge>
    <edge id=":7900968106_c0" function="crossing" crossingEdges="-180970197#0 180970197#0">
        <lane id=":7900968106_c0_0" index="0" allow="pedestrian" speed="2.78" length="6.40" width="4.00" shape="523.52,859.52 518.60,863.61" outlineShape="524.87,861.00 519.80,865.22 517.32,862.08 522.24,857.99"/>
    </edge>
    <edge id=":7900968106_w0" function="walkingarea">
        <lane id=":7900968106_w0_0" index="0" allow="pedestrian" speed="2.78" length="1.58" width="4.00" shape="519.07,864.11 517.52,865.37 518.34,866.43 519.88,865.15 517.32,862.08"/>
    </edge>
    <edge id=":7900968106_w1" function="walkingarea">
        <lane id=":7900968106_w1_0" index="0" allow="pedestrian" speed="2.78" length="1.59" width="4.00" shape="522.24,857.99 524.80,861.06 526.34,859.78 525.62,858.84 524.06,860.10"/>
    </edge>
    <edge id=":7900968107_0" function="internal">
        <lane id=":7900968107_0_0" index="0" disallow="pedestrian bicycle tram rail_urban rail rail_electric rail_fast ship container cable_car subway aircraft wheelchair scooter drone" speed="11.11" length="4.00" shape="1082.38,412.15 1079.35,414.75"/>
        <lane id=":7900968107_0_1" index="1" disallow="pedestrian bicycle tram rail_urban rail rail_electric rail_fast ship container cable_car subway aircraft wheelchair scooter drone" speed="11.11" length="4.00" shape="1080.30,409.72 1077.26,412.33"/>
    </edge>
    <edge id=":7900968107_2" function="internal">
        <lane id=":7900968107_2_0" index="0" disallow="pedestrian bicycle tram rail_urban rail rail_electric rail_fast ship container cable_car subway aircraft wheelchair scooter drone" speed="11.11" length="4.00" shape="1073.10,407.47 1076.13,404.87"/>
        <lane id=":7900968107_2_1" index="1" disallow="pedestrian bicycle tram rail_urban rail rail_electric rail_fast ship container cable_car subway aircraft wheelchair scooter drone" speed="11.11" length="4.00" shape="1075.18,409.90 1078.22,407.29"/>
    </edge>
    <edge id=":7900968107_c0" function="crossing" crossingEdges="1337657045#4 -1337657045#4">
        <lane id=":7900968107_c0_0" index="0" allow="pedestrian" speed="2.78" length="12.80" width="4.00" shape="1073.57,404.95 1081.91,414.67" outlineShape="1075.09,403.65 1083.43,413.36 1083.49,413.44 1083.43,413.36 1080.39,415.97 1072.05,406.26"/>
    </edge>
    <edge id=":7900968107_w0" function="walkingarea">
        <lane id=":7900968107_w0_0" index="0" allow="pedestrian" speed="2.78" length="2.82" width="4.00" shape="1080.39,415.97 1081.69,417.49 1084.73,414.88 1083.43,413.36 1080.39,415.97"/>
    </edge>
    <edge id=":7900968107_w1" function="walkingarea">
        <lane id=":7900968107_w1_0" index="0" allow="pedestrian" speed="2.78" length="2.82" width="4.00" shape="1072.05,406.26 1075.09,403.65 1073.79,402.13 1070.75,404.74 1072.05,406.26"/>
    </edge>
    <edge id=":7900968108_0" function="internal">
        <lane id=":7900968108_0_0" index="0" disallow="pedestrian bicycle tram rail_urban rail rail_electric rail_fast ship container cable_car subway aircraft wheelchair scooter drone" speed="11.11" length="4.00" shape="1118.42,381.22 1115.39,383.83"/>
        <lane id=":7900968108_0_1" index="1" disallow="pedestrian bicycle tram rail_urban rail rail_electric rail_fast ship container cable_car subway aircraft wheelchair scooter drone" speed="11.11" length="4.00" shape="1116.34,378.79 1113.30,381.40"/>
    </edge>
    <edge id=":7900968108_2" function="internal">
        <lane id=":7900968108_2_0" index="0" disallow="pedestrian bicycle tram rail_urban rail rail_electric rail_fast ship container cable_car subway aircraft wheelchair scooter drone" speed="11.11" length="4.00" shape="1109.14,376.54 1112.17,373.94"/>
        <lane id=":7900968108_2_1" index="1" disallow="pedestrian bicycle tram rail_urban rail rail_electric rail_fast ship container cable_car subway aircraft wheelchair scooter drone" speed="11.11" length="4.00" shape="1111.22,378.97 1114.26,376.36"/>
    </edge>
    <edge id=":7900968108_c0" function="crossing" crossingEdges="1337657045#5 -1337657045#5">
        <lane id=":7900968108_c0_0" index="0" allow="pedestrian" speed="2.78" length="12.80" width="4.00" shape="1109.61,374.02 1117.95,383.74" outlineShape="1111.13,372.72 1119.47,382.43 1117.73,386.56 1120.77,383.95 1119.53,382.51 1116.43,385.04 1108.09,375.33"/>
    </edge>
    <edge id=":7900968108_w0" function="walkingarea">
        <lane id=":7900968108_w0_0" index="0" allow="pedestrian" speed="2.78" length="2.83" width="4.00" shape="1116.43,385.04 1117.73,386.56 1120.77,383.95 1119.47,382.43 1116.43,385.04"/>
    </edge>
    <edge id=":7900968108_w1" function="walkingarea">
        <lane id=":7900968108_w1_0" index="0" allow="pedestrian" speed="2.78" length="2.82" width="4.00" shape="1108.09,375.33 1111.13,372.72 1109.83,371.20 1106.79,373.81 1108.09,375.33"/>
    </edge>

    <edge id="-1337657045#0" from="7900968103" to="1217580006" priority="13" type="highway.trunk" shape="522.43,873.17 463.59,911.20 451.38,918.89 428.91,933.04 383.10,961.15 365.85,971.74">
        <lane id="-1337657045#0_0" index="0" allow="pedestrian" speed="11.11" length="182.59" width="2.00" shape="524.31,880.77 467.57,917.44 455.32,925.15 432.82,939.32 386.97,967.46 369.72,978.05"/>
        <lane id="-1337657045#0_1" index="1" disallow="pedestrian bicycle tram rail_urban rail rail_electric rail_fast ship container cable_car subway aircraft wheelchair scooter drone" speed="11.11" length="182.59" shape="522.90,878.58 466.17,915.25 453.94,922.95 431.44,937.12 385.61,965.24 368.36,975.83"/>
        <lane id="-1337657045#0_2" index="2" disallow="pedestrian bicycle tram rail_urban rail rail_electric rail_fast ship container cable_car subway aircraft wheelchair scooter drone" speed="11.11" length="182.59" shape="521.16,875.90 464.45,912.55 452.23,920.24 429.75,934.40 383.94,962.51 366.69,973.10"/>
        <param key="ref" value="74"/>
    </edge>
    <edge id="-1337657045#1" from="352681772" to="7900968103" priority="13" type="highway.trunk">
        <lane id="-1337657045#1_0" index="0" allow="pedestrian" speed="11.11" length="0.20" width="2.00" shape="526.37,879.43 526.20,879.54"/>
        <lane id="-1337657045#1_1" index="1" disallow="pedestrian bicycle tram rail_urban rail rail_electric rail_fast ship container cable_car subway aircraft wheelchair scooter drone" speed="11.11" length="0.20" shape="524.96,877.25 524.79,877.36"/>
        <lane id="-1337657045#1_2" index="2" disallow="pedestrian bicycle tram rail_urban rail rail_electric rail_fast ship container cable_car subway aircraft wheelchair scooter drone" speed="11.11" length="0.20" shape="523.22,874.56 523.05,874.67"/>
        <param key="ref" value="74"/>
    </edge>
    <edge id="-1337657045#2" from="7900968104" to="352681772" priority="13" type="highway.trunk">
        <lane id="-1337657045#2_0" index="0" allow="pedestrian" speed="11.11" length="0.20" width="2.00" shape="537.21,872.44 537.04,872.55"/>
        <lane id="-1337657045#2_1" index="1" disallow="pedestrian bicycle tram rail_urban rail rail_electric rail_fast ship container cable_car subway aircraft wheelchair scooter drone" speed="11.11" length="0.20" shape="535.81,870.25 535.64,870.36"/>
        <lane id="-1337657045#2_2" index="2" disallow="pedestrian bicycle tram rail_urban rail rail_electric rail_fast ship container cable_car subway aircraft wheelchair scooter drone" speed="11.11" length="0.20" shape="534.07,867.56 533.91,867.67"/>
        <param key="ref" value="74"/>
    </edge>
    <edge id="-1337657045#3" from="7900968107" to="7900968104" priority="13" type="highway.trunk" shape="1077.74,409.81 1005.37,471.93 954.20,515.83 922.53,543.03 913.52,550.76 859.85,596.83 823.49,628.03 807.85,641.46 797.17,650.62 777.38,667.60 764.49,678.67 730.58,707.57 723.15,714.06 697.28,736.63 667.47,762.63 642.44,784.48 611.68,810.60 564.18,846.19 532.86,866.44">
        <lane id="-1337657045#3_0" index="0" allow="pedestrian" speed="11.11" length="707.37" width="2.00" shape="1081.04,416.73 1010.19,477.55 959.02,521.45 927.35,548.64 918.34,556.38 864.67,602.45 828.31,633.65 812.67,647.08 801.99,656.24 782.20,673.22 769.30,684.29 735.41,713.17 728.02,719.64 702.14,742.21 672.34,768.21 647.27,790.09 616.30,816.39 568.41,852.27 539.06,871.25"/>
        <lane id="-1337657045#3_1" index="1" disallow="pedestrian bicycle tram rail_urban rail rail_electric rail_fast ship container cable_car subway aircraft wheelchair scooter drone" speed="11.11" length="707.37" shape="1079.35,414.75 1008.50,475.57 957.33,519.47 925.66,546.67 916.65,554.40 862.98,600.47 826.62,631.67 810.98,645.10 800.30,654.26 780.51,671.24 767.61,682.32 733.72,711.20 726.31,717.68 700.44,740.25 670.63,766.25 645.57,788.12 614.68,814.35 566.93,850.13 537.65,869.06"/>
        <lane id="-1337657045#3_2" index="2" disallow="pedestrian bicycle tram rail_urban rail rail_electric rail_fast ship container cable_car subway aircraft wheelchair scooter drone" speed="11.11" length="707.37" shape="1077.26,412.33 1006.41,473.14 955.24,517.04 923.57,544.24 914.56,551.97 860.89,598.04 824.53,629.24 808.89,642.67 798.21,651.83 778.42,668.81 765.53,679.89 731.63,708.78 724.20,715.27 698.33,737.84 668.52,763.84 643.48,785.69 612.68,811.85 565.10,847.50 535.91,866.37"/>
        <param key="ref" value="74"/>
    </edge>