<?xml version="1.0" encoding="UTF-8"?>

<!-- generated on 2026-05-29T07:30:21.689946+08:00 by Eclipse SUMO polyconvert 1.26.0
<polyconvertConfiguration xmlns:xsi="http://www.w3.org/2001/XMLSchema-instance" xsi:noNamespaceSchemaLocation="http://sumo.dlr.de/xsd/polyconvertConfiguration.xsd">

    <input>
        <net-file value="test.net.xml"/>
        <osm-files value="map.osm"/>
        <type-file value="typemap.xml"/>
    </input>

    <output>
        <output-file value="map.poly.xml"/>
    </output>

    <report>
        <xml-validation value="never"/>
    </report>

</polyconvertConfiguration>
-->

<additional xmlns:xsi="http://www.w3.org/2001/XMLSchema-instance" xsi:noNamespaceSchemaLocation="http://sumo.dlr.de/xsd/additional_file.xsd">
    <location netOffset="-810008.55,-823025.46" convBoundary="-89.66,0.00,1550.70,1136.26" origBoundary="125.807587,7.436760,125.822386,7.447073" projParameter="+proj=utm +zone=51 +ellps=WGS84 +datum=WGS84 +units=m +no_defs"/>

    <poly id="1273213525" type="building" color="255,230,230" fill="1" layer="-1.00" shape="466.121246,931.053273 483.885248,951.985819 495.991860,941.835798 478.216738,920.914245 466.121246,931.053273"/>
    <poly id="1273213526" type="building" color="255,230,230" fill="1" layer="-1.00" shape="491.977873,930.266014 500.732067,924.367009 491.789467,911.271628 483.035274,917.170635 491.977873,930.266014"/>
    <poly id="1273213527" type="building" color="255,230,230" fill="1" layer="-1.00" shape="528.635668,910.941741 536.137514,905.665658 526.413872,892.045085 518.923073,897.321240 528.635668,910.941741"/>
    <poly id="1273213528" type="building" color="255,230,230" fill="1" layer="-1.00" shape="496.936745,907.950706 530.094250,947.332512 546.043102,934.085705 512.885593,894.703888 496.936745,907.950706"/>
    <poly id="1273214396" type="building" color="255,230,230" fill="1" layer="-1.00" shape="531.624455,913.484343 538.898959,907.476305 639.124188,1027.087788 631.882890,1033.084952 531.624455,913.484343"/>
    <poly id="1443699520" type="residential" color="235,235,227" fill="0" layer="-3.00" shape="519.401074,865.624692 487.584555,835.980483 369.838500,806.387133 275.340531,673.730368"/>
    <poly id="1443699522" type="residential" color="235,235,227" fill="0" layer="-3.00" shape="519.401074,865.624692 406.894312,944.976483 362.193553,960.884874 356.943979,954.243702 329.892934,910.097289 234.520656,885.405957 208.261508,885.216791 181.248197,885.487710 25.361861,880.844004 15.205459,888.361194 17.475630,890.987732 -13.910119,915.215855 -17.869166,919.319146 -89.656863,837.610952"/>
    <poly id="1443699525" type="residential" color="235,235,227" fill="0" layer="-3.00" shape="282.788055,605.774277 464.535547,640.378870 595.835752,682.421898 648.691875,664.506823 742.484840,687.473227 645.663244,768.839500 604.067421,808.907497 519.401074,865.624692"/>
    <poly id="175261195" type="building" color="255,230,230" fill="1" layer="-1.00" shape="599.375361,841.363078 550.927135,883.623240 646.771099,1002.509525 700.877963,954.707093 599.375361,841.363078"/>
    <poly id="175261195#1" type="shop" color="237,199,255" fill="1" layer="-1.00" shape="599.375361,841.363078 550.927135,883.623240 646.771099,1002.509525 700.877963,954.707093 599.375361,841.363078"/>
    <poly id="727842504" type="building" color="255,230,230" fill="1" layer="-1.00" shape="509.523546,825.848773 506.755059,832.084733 526.524491,853.849108 552.155938,838.118232 549.956929,834.728400 529.230309,829.693182 509.523546,825.848773"/>
    <poly id="739943282" type="building" color="255,230,230" fill="1" layer="-1.00" shape="451.706487,887.274978 459.353473,900.849104 492.071038,882.661888 484.413079,869.076617 451.706487,887.274978"/>
    <poi id="8329444746" type="amenity" color="237,199,199" layer="4.00" x="539.30" y="842.75"/>
</additional>
