<?xml version="1.0" encoding="UTF-8"?>

<!-- generated on 2026-05-30T13:20:10.919262+08:00 by Eclipse SUMO netedit 1.26.0
-->

<routes xmlns:xsi="http://www.w3.org/2001/XMLSchema-instance" xsi:noNamespaceSchemaLocation="http://sumo.dlr.de/xsd/routes_file.xsd">
    <!-- VTypes -->
    <vType id="Emergency" vClass="emergency" guiShape="emergency"/>
    <vType id="bigPed" length="0.70" vClass="pedestrian" guiShape="pedestrian" width="1.30" height="2.00" color="orange"/>
    <!-- Vehicles, persons and containers (sorted by depart) -->
    <trip id="t_0" depart="0.00" departLane="random" departSpeed="random" color="208,53,171" from="E0" to="E1"/>
    <trip id="t_1" depart="0.00" departLane="random" departSpeed="random" color="208,56,53" from="-E1" to="E2"/>
    <trip id="t_2" depart="0.00" departLane="random" departSpeed="random" color="104,208,53" from="-E2" to="-E0"/>
    <trip id="t_3" type="Emergency" depart="0.00" departLane="random" from="E0" to="E1"/>
    <trip id="t_4" type="Emergency" depart="0.00" departLane="random" from="-E1" to="-E0"/>
    <flow id="f_0" begin="0.00" end="3600.00" perHour="1800.00" departSpeed="random" from="E3" to="-E0"/>
    <flow id="f_1" begin="0.00" end="3600.00" perHour="1800.00" departSpeed="random" from="E3" to="E1"/>
    <flow id="f_2" begin="0.00" end="3600.00" perHour="1800.00" departSpeed="random" from="E3" to="E2"/>
    <flow id="f_3" begin="0.00" end="3600.00" perHour="1800.00" departSpeed="random" from="-E1" to="-E0"/>
    <flow id="f_4" begin="0.00" end="3600.00" perHour="1800.00" departSpeed="random" from="E0" to="-E3"/>
    <flow id="f_5" begin="0.00" end="3600.00" perHour="1800.00" departSpeed="random" from="E0" to="E2"/>
    <flow id="f_6" begin="0.00" end="3600.00" perHour="1800.00" departSpeed="random" from="-E1" to="-E3"/>
    <person id="p_0" type="bigPed" depart="0.00">
        <personTrip from="E0" to="-E3"/>
    </person>
    <person id="p_1" type="bigPed" depart="0.00">
        <personTrip from="E0" to="E1"/>
    </person>
    <person id="p_10" depart="0.00">
        <personTrip from="-E2" to="E3"/>
    </person>
    <person id="p_2" type="bigPed" depart="0.00">
        <personTrip from="E0" to="-E2"/>
    </person>
    <person id="p_3" type="bigPed" depart="0.00">
        <personTrip from="E3" to="E1"/>
    </person>
    <person id="p_4" type="bigPed" depart="0.00">
        <personTrip from="E3" to="E2"/>
    </person>
    <person id="p_5" type="bigPed" depart="0.00">
        <personTrip from="-E2" to="-E3"/>
    </person>
    <person id="p_6" type="bigPed" depart="0.00">
        <personTrip from="-E2" to="-E1"/>
    </person>
    <person id="p_7" type="bigPed" depart="0.00">
        <personTrip from="-E1" to="-E0"/>
    </person>
    <person id="p_8" type="bigPed" depart="0.00">
        <personTrip from="-E1" to="E3"/>
    </person>
    <person id="p_9" type="bigPed" depart="0.00">
        <personTrip from="E0" to="E3"/>
    </person>
</routes>
