<?xml version="1.0" encoding="UTF-8"?>

<!-- generated on 2026-05-30T16:21:21.692914+08:00 by Eclipse SUMO sumo 1.26.0
-->

<sumoConfiguration xmlns:xsi="http://www.w3.org/2001/XMLSchema-instance" xsi:noNamespaceSchemaLocation="http://sumo.dlr.de/xsd/sumoConfiguration.xsd">

    <input>
        <net-file value="tagum1.net.xml"/>
        <route-files value="tagum1.rou.xml"/>
    </input>

</sumoConfiguration>
